Version 4
SHEET 1 880 680
WIRE 128 -128 32 -128
WIRE 32 -96 32 -128
WIRE 128 -80 128 -128
WIRE 64 32 -16 32
WIRE 240 32 144 32
WIRE 32 80 32 -16
WIRE 96 80 32 80
WIRE 96 96 96 80
WIRE -128 112 -144 112
WIRE -16 112 -16 32
WIRE -16 112 -48 112
WIRE 64 112 -16 112
WIRE 240 128 240 32
WIRE 240 128 128 128
WIRE 304 128 240 128
WIRE 400 128 384 128
WIRE 416 128 400 128
WIRE 512 128 496 128
WIRE 528 128 512 128
WIRE 624 128 608 128
WIRE 816 128 624 128
WIRE 400 144 400 128
WIRE 512 144 512 128
WIRE 624 144 624 128
WIRE 96 192 96 160
WIRE -144 352 -144 112
WIRE 816 352 816 128
WIRE 816 352 -144 352
FLAG 400 208 0
FLAG 512 208 0
FLAG 624 208 0
FLAG 128 -80 0
FLAG 96 272 0
SYMBOL OpAmps\\LT1493 96 64 R0
SYMATTR InstName U1
SYMBOL res 160 16 R90
WINDOW 0 0 56 VBottom 2
WINDOW 3 32 56 VTop 2
SYMATTR InstName R1
SYMATTR Value 560k
SYMBOL res -32 96 R90
WINDOW 0 0 56 VBottom 2
WINDOW 3 32 56 VTop 2
SYMATTR InstName R2
SYMATTR Value 10k
SYMBOL res 400 112 R90
WINDOW 0 0 56 VBottom 2
WINDOW 3 32 56 VTop 2
SYMATTR InstName R3
SYMATTR Value 10k
SYMBOL res 512 112 R90
WINDOW 0 0 56 VBottom 2
WINDOW 3 32 56 VTop 2
SYMATTR InstName R4
SYMATTR Value 10k
SYMBOL res 624 112 R90
WINDOW 0 0 56 VBottom 2
WINDOW 3 32 56 VTop 2
SYMATTR InstName R5
SYMATTR Value 10k
SYMBOL cap 384 144 R0
SYMATTR InstName C1
SYMATTR Value 0.001µ
SYMBOL cap 496 144 R0
SYMATTR InstName C2
SYMATTR Value 0.001µ
SYMBOL cap 608 144 R0
SYMATTR InstName C3
SYMATTR Value 0.001µ
SYMBOL voltage 32 0 R180
WINDOW 0 24 96 Left 2
WINDOW 3 24 16 Left 2
SYMATTR InstName V1
SYMATTR Value 15
SYMBOL voltage 96 288 R180
WINDOW 0 24 96 Left 2
WINDOW 3 24 16 Left 2
SYMATTR InstName V2
SYMATTR Value 15
TEXT -146 358 Left 2 !.tran 0 0.001 0.1ms
